output/compact_ny_2025/sensitivities/RCC_announced_paths_off/attempt_1_MIPS_fresh_pf_bus.csv
source_bus,bus_type,vm_pu,vmin_pu,vmax_pu,p_mismatch_mw,q_mismatch_mvar,voltage_below_min_pu,voltage_above_max_pu,violated,invalid_voltage_bounds
37,1,1.07993555803916,0.9,1.1,-6.82121026329696e-13,-8.78359884826097e-12,0,0,0,0
38,1,1.09090774117511,0.9,1.1,1.70530256582424e-13,2.26138552328337e-12,0,0,0,0
39,1,1.08248444115816,0.9,1.1,1.13686837721616e-13,2.849276370398e-12,0,0,0,0
40,1,1.02276538392823,0.9,1.1,3.55427444592753e-13,-1.45539701636727e-12,0,0,0,0
41,1,0.977885762553047,0.9,1.1,1.70530256582424e-13,4.2348347051302e-12,0,0,0,0
42,3,0.966350348197195,0.9,1.1,-3.97903932025656e-13,-1.33582034322899e-12,0,0,0,0
43,1,1.07807998018444,0.9,1.1,1.25055521493778e-12,5.11257702839885e-12,0,0,0,0
44,1,1.05498510379862,0.9,1.1,-1.98951966012828e-13,9.28424004342787e-13,0,0,0,0
45,1,1.02420599510023,0.9,1.1,-5.6843418860808e-14,-1.09068309939175e-12,0,0,0,0
46,1,0.924906808309752,0.9,1.1,9.32587340685131e-14,7.99360577730113e-14,0,0,0,0
47,2,0.900000132824582,0.9,1.1,5.6843418860808e-14,-1.13686837721616e-13,0,0,0,0
48,2,1.09999995338014,0.9,1.1,5.88440921322011e-13,-1.13686837721616e-13,0,0,0,0
49,1,1.05804735993449,0.9,1.1,-6.3948846218409e-14,-1.09690034832965e-13,0,0,0,0
50,2,1.0833860348521,0.9,1.1,0,-6.82121026329696e-13,0,0,0,0
51,2,0.918266639222945,0.9,1.1,5.6843418860808e-14,1.13686837721616e-12,0,0,0,0
52,1,1.03250562582202,0.9,1.1,-1.28381335565583e-13,2.19717063215358e-12,0,0,0,0
53,2,1.05617272568797,0.9,1.1,-2.8421709430404e-13,-4.54747350886464e-13,0,0,0,0
54,2,0.958137290057167,0.9,1.1,7.95807864051312e-13,1.13686837721616e-13,0,0,0,0
55,2,1.02959960401452,0.9,1.1,-2.55795384873636e-13,-3.41060513164848e-12,0,0,0,0
56,2,0.980368215969172,0.9,1.1,-1.70530256582424e-13,-1.35003119794419e-12,0,0,0,0
57,2,1.01346882896847,0.9,1.1,6.03961325396085e-14,8.5265128291212e-14,0,0,0,0
58,1,0.979324013008204,0.9,1.1,-7.105427357601e-15,7.05568936609779e-12,0,0,0,0
59,1,0.981904485952745,0.9,1.1,1.13686837721616e-13,-3.09796632791404e-12,0,0,0,0
60,2,0.974652304498494,0.9,1.1,-1.4210854715202e-14,-3.5527136788005e-13,0,0,0,0
61,2,1.00151279273998,0.9,1.1,8.5265128291212e-14,8.5265128291212e-14,0,0,0,0
62,1,0.981565676263514,0.9,1.1,-2.17923766331086e-13,-5.32544574639344e-13,0,0,0,0
63,1,1.00643169058133,0.9,1.1,-2.22745972434471e-14,-1.78787251127118e-13,0,0,0,0
64,1,0.979109456092032,0.9,1.1,-7.105427357601e-14,-1.97175609173428e-13,0,0,0,0
65,2,0.900000044691417,0.9,1.1,-3.01980662698043e-14,1.4210854715202e-13,0,0,0,0
66,1,1.09434039630616,0.9,1.1,-3.5527136788005e-14,-5.19471618498635e-12,0,0,0,0
67,1,1.08644004562355,0.9,1.1,-3.73034936274053e-14,5.57462062622527e-12,0,0,0,0
68,2,1.0999999535067,0.9,1.1,-2.8421709430404e-14,5.40012479177676e-13,0,0,0,0
69,1,1.09999984478156,0.9,1.1,-3.9557472601417e-14,2.73530312501297e-12,0,0,0,0
70,1,1.09166216345562,0.9,1.1,-2.25077379090519e-14,-2.71649178751156e-12,0,0,0,0
71,2,1.09121396107901,0.9,1.1,-6.82121026329696e-13,1.36424205265939e-12,0,0,0,0
72,2,0.965207232971988,0.9,1.1,0,6.82121026329696e-13,0,0,0,0
73,1,1.08149008099178,0.9,1.1,2.50111042987555e-12,2.86775048152776e-11,0,0,0,0
74,1,1.08385405482686,0.9,1.1,-7.98650034994353e-12,-7.70494779089859e-12,0,0,0,0
75,1,1.08335884326055,0.9,1.1,4.51194637207664e-13,3.2911173786232e-12,0,0,0,0
76,1,1.08337735107285,0.9,1.1,1.59161572810262e-12,-1.08144604382687e-11,0,0,0,0
77,1,1.08400704648711,0.9,1.1,-8.88881498884697e-13,-1.24415498932511e-11,0,0,0,0
78,2,1.0833143481992,0.9,1.1,4.12114786740858e-12,-1.28466126625426e-11,0,0,0,0
79,2,1.09999999063182,0.9,1.1,1.13686837721616e-12,7.27595761418343e-12,0,0,0,0
80,2,0.900000005798747,0.9,1.1,2.27373675443232e-13,-1.25055521493778e-12,0,0,0,0
81,1,1.03797119423895,0.9,1.1,-1.25055521493778e-12,-6.18172180111287e-12,0,0,0,0
82,2,1.09999998821651,0.9,1.1,0,-2.1600499167107e-12,0,0,0,0
9001,1,1.08488087575447,0.9,1.1,3.82739408982303e-13,-4.54379139994627e-14,0,0,0,0
9002,1,1.08315254541225,0.9,1.1,-2.20554187186885e-12,6.71110420297364e-12,0,0,0,0
9003,1,0.991774267215214,0.9,1.1,-1.13686837721616e-13,1.54321000422897e-12,0,0,0,0
858,1,1.0824927006762,0.9,1.1,-1.51581298917268e-12,2.6215061344501e-13,0,0,0,0
774,1,1.08378088361268,0.9,1.1,-1.83943429506521e-12,1.30298098633385e-11,0,0,0,0
9101,1,1.08008896587312,0.9,1.1,-2.64536601709024e-13,1.22763400473209e-11,0,0,0,0
9102,1,1.07878824972409,0.9,1.1,1.47372657358708e-12,-2.37322081165475e-11,0,0,0,0
9103,1,1.05333628915301,0.9,1.1,-3.73991327902749e-13,-1.3086745872044e-14,0,0,0,0
9104,1,1.08489696412021,0.9,1.1,-5.99038610180894e-13,-3.03084709870431e-12,0,0,0,0
1220,1,1.06084315914426,0.9,1.1,3.25439371342612e-14,-1.55360491803209e-12,0,0,0,0
1130,1,1.09201010929929,0.9,1.1,-9.82605263607061e-13,-9.38819076479209e-12,0,0,0,0
557,1,1.09197968426835,0.9,1.1,-6.37459942285754e-12,-1.43384054736117e-11,0,0,0,0
1529,1,1.09574332832132,0.9,1.1,7.50471504341207e-13,-2.07286275624471e-13,0,0,0,0
1493,1,1.09606946572748,0.9,1.1,3.63379117494959e-12,2.48514180212176e-11,0,0,0,0
601,1,1.09616666721523,0.9,1.1,-1.14548190803744e-12,-1.58446076570127e-11,0,0,0,0
1129,1,1.06064164396393,0.9,1.1,-4.23026958059463e-12,-1.13579201845555e-11,0,0,0,0
9111,1,1.09666118323394,0.9,1.1,-1.5854389147629e-13,-6.42369475021293e-12,0,0,0,0
9112,1,1.06064164396393,0.9,1.1,0,0,0,0,0,0
9113,1,1.03797119423895,0.9,1.1,0,0,0,0,0,0
9114,1,1.0968819796153,0.9,1.1,1.28564680395426e-12,6.11349710741772e-12,0,0,0,0
